
Circuit: group 21 - lab 1 tcfe

Doing analysis at TEMP = 27.000000 and TNOM = 27.000000


No. of Data Rows : 1
*******************
RESULTADOS
*******************
@gb[i] = -2.39986e-04
@id[current] = 1.011550e-03
@r1[i] = 2.293000e-04
@r2[i] = -2.39986e-04
@r3[i] = -1.06863e-05
@r4[i] = 1.176882e-03
@r5[i] = -1.25154e-03
@r6[i] = 9.475818e-04
@r7[i] = 9.475818e-04
v(1) = 1.167246e+01
v(2) = 7.299291e+00
v(3) = 7.792599e+00
v(4) = 8.033134e+00
v(5) = 2.918905e+00
v(6) = 9.831754e-01
v(7) = 7.825301e+00
v(8) = 9.831754e-01
hc#branch = 6.396854e-05
va#branch = -2.29300e-04
ve#branch = 9.475818e-04
ngspice-31 done
