
Circuit: group 21 - lab 2 tcfe

Doing analysis at TEMP = 27.000000 and TNOM = 27.000000


No. of Data Rows : 1
*******************
RESULTS - QUESTION 1
*******************
Q1_TAB
@gb[i] = -2.39986e-04
@r1[i] = -2.29300e-04
@r2[i] = -2.39986e-04
@r3[i] = -1.06863e-05
@r4[i] = 1.176882e-03
@r5[i] = -2.39986e-04
@r6[i] = 9.475819e-04
@r7[i] = 9.475819e-04
v(1) = 5.114229e+00
v(2) = 4.873694e+00
v(3) = 4.380386e+00
v(5) = 4.906396e+00
v(6) = 5.644101e+00
v(7) = -1.93573e+00
v(8) = -2.91891e+00
v(9) = -1.93573e+00
hd#branch = -9.47582e-04
vaux#branch = 9.475819e-04
vs#branch = -2.29300e-04
Q1_END
Doing analysis at TEMP = 27.000000 and TNOM = 27.000000


No. of Data Rows : 1
	Node                                  Voltage
	----                                  -------
	----	-------
	V(8)                             -2.91891e+00
	V(9)                             -1.93573e+00
	V(7)                             -1.93573e+00
	V(6)                             5.644101e+00
	V(5)                             4.906396e+00
	V(3)                             4.380386e+00
	V(1)                             5.114229e+00
	V(2)                             4.873694e+00

	Source	Current
	------	-------

	@gb[i]                           -2.39986e-04
	@r7[i]                           9.475819e-04
	@r6[i]                           9.475819e-04
	@r5[i]                           -2.39986e-04
	@r4[i]                           1.176882e-03
	@r3[i]                           -1.06863e-05
	@r2[i]                           -2.39986e-04
	@r1[i]                           -2.29300e-04
	vs#branch                        -2.29300e-04
	vaux#branch                      9.475819e-04
	hd#branch                        -9.47582e-04

 Resistor models (Simple linear resistor)
      model                     R

        rsh                     0
     narrow                     0
      short                     0
        tc1                     0
        tc2                     0
        tce                     0
       defw                 1e-05
          l                 1e-05
         kf                     0
         af                     0
          r                     0
     bv_max                 1e+99
         lf                     1
         wf                     1
         ef                     1

 CCVS: Linear current controlled current source
     device                    hd
          i          -0.000947582
          v                7.8253
          p           -0.00741511

 Resistor: Simple linear resistor
     device                    r7                    r6                    r5
      model                     R                     R                     R
 resistance               1037.56               2042.81               3073.95
         ac               1037.56               2042.81               3073.95
      dtemp                     0                     0                     0
     bv_max                 1e+99                 1e+99                 1e+99
      noisy                     1                     1                     1
          i           0.000947582           0.000947582          -0.000239986
          p            0.00093164            0.00183426           0.000177039

 Resistor: Simple linear resistor
     device                    r4                    r3                    r2
      model                     R                     R                     R
 resistance               4168.98               3060.19               2055.57
         ac               4168.98               3060.19               2055.57
      dtemp                     0                     0                     0
     bv_max                 1e+99                 1e+99                 1e+99
      noisy                     1                     1                     1
          i            0.00117688          -1.06863e-05          -0.000239986
          p            0.00577425           3.49464e-07           0.000118387

 Resistor: Simple linear resistor
     device                    r1
      model                     R
 resistance                  1049
         ac                  1049
      dtemp                     0
     bv_max                 1e+99
      noisy                     1
          i            -0.0002293
          p           5.51546e-05

 VCCS: Voltage controlled current source
     device                    gb
          m                     0
          i          -0.000239986
          v               1.26371
          p          -0.000303274

 Vsource: Independent voltage source
     device                  vaux                    vs
         dc                     0               5.11423
      acmag                     0                     0
      pulse         -         -
        sin         -         -
        exp         -         -
        pwl         -         -
       sffm         -         -
         am         -         -
    trnoise         -         -
   trrandom         -         -
          i           0.000947582            -0.0002293
          p                    -0            0.00117269


Total analysis time (seconds) = 0

Total elapsed time (seconds) = 0.002 

Total DRAM available = 7961.031 MB.
DRAM currently available = 5678.324 MB.
Total ngspice program size =   21.852 MB.
Resident set size =    9.922 MB.
Shared ngspice pages =    8.012 MB.
Text (code) pages =    5.070 MB.
Stack = 0 bytes.
Library pages =    2.109 MB.

