
Circuit: group 21 - lab 2 tcfe

Doing analysis at TEMP = 27.000000 and TNOM = 27.000000


No. of Data Rows : 1
*******************
TRANSIENT ANALYSIS - QUESTION 3
*******************
Doing analysis at TEMP = 27.000000 and TNOM = 27.000000


Initial Transient Solution
--------------------------

Node                                   Voltage
----                                   -------
1                                            0
2                                      5.67841
3                                      17.3241
5                                       4.9064
6                                       5.6441
7                                     -1.93573
9                                     -1.93573
8                                     -2.91891
hd#branch                         -0.000682831
vaux#branch                        0.000947582
vs#branch                           0.00541317


No. of Data Rows : 2008

The file "question_3.ps" may be printed on a postscript printer.
question_3_FIG
Doing analysis at TEMP = 27.000000 and TNOM = 27.000000


No. of Data Rows : 1
	Node                                  Voltage
	----                                  -------
	----	-------
	V(8)                             0.000000e+00
	V(9)                             0.000000e+00
	V(7)                             0.000000e+00
	V(6)                             0.000000e+00
	V(5)                             0.000000e+00
	V(3)                             0.000000e+00
	V(2)                             0.000000e+00
	V(1)                             0.000000e+00

	Source	Current
	------	-------

	@gb[i]                           0.000000e+00
	@c1[i]                           0.000000e+00
	@r7[i]                           0.000000e+00
	@r6[i]                           0.000000e+00
	@r5[i]                           0.000000e+00
	@r4[i]                           0.000000e+00
	@r3[i]                           0.000000e+00
	@r2[i]                           0.000000e+00
	@r1[i]                           0.000000e+00
	vs#branch                        0.000000e+00
	vaux#branch                      0.000000e+00
	hd#branch                        0.000000e+00

 Capacitor models (Fixed capacitor)
      model                     C

        cap                     0
         cj                     0
       cjsw                     0
       defw                 1e-05
       defl                     0
     narrow                     0
      short                     0
        del                     0
        tc1                     0
        tc2                     0
         di                     0
      thick                     0
     bv_max                 1e+99

 Resistor models (Simple linear resistor)
      model                     R

        rsh                     0
     narrow                     0
      short                     0
        tc1                     0
        tc2                     0
        tce                     0
       defw                 1e-05
          l                 1e-05
         kf                     0
         af                     0
          r                     0
     bv_max                 1e+99
         lf                     1
         wf                     1
         ef                     1

 Capacitor: Fixed capacitor
     device                    c1
      model                     C
capacitance           1.01155e-06
      dtemp                     0
     bv_max                 1e+99
          i                     0
          p                     0

 CCVS: Linear current controlled current source
     device                    hd
          i                     0
          v                     0
          p                     0

 Resistor: Simple linear resistor
     device                    r7                    r6                    r5
      model                     R                     R                     R
 resistance               1037.56               2042.81               3073.95
         ac               1037.56               2042.81               3073.95
      dtemp                     0                     0                     0
     bv_max                 1e+99                 1e+99                 1e+99
      noisy                     1                     1                     1
          i                     0                     0                     0
          p                     0                     0                     0

 Resistor: Simple linear resistor
     device                    r4                    r3                    r2
      model                     R                     R                     R
 resistance               4168.98               3060.19               2055.57
         ac               4168.98               3060.19               2055.57
      dtemp                     0                     0                     0
     bv_max                 1e+99                 1e+99                 1e+99
      noisy                     1                     1                     1
          i                     0                     0                     0
          p                     0                     0                     0

 Resistor: Simple linear resistor
     device                    r1
      model                     R
 resistance                  1049
         ac                  1049
      dtemp                     0
     bv_max                 1e+99
      noisy                     1
          i                     0
          p                     0

 VCCS: Voltage controlled current source
     device                    gb
          m                     0
          i                     0
          v                     0
          p                     0

 Vsource: Independent voltage source
     device                  vaux                    vs
         dc                     0                     0
      acmag                     0                     0
      pulse         -         -
        sin         -         -
        exp         -         -
        pwl         -         -
       sffm         -         -
         am         -         -
    trnoise         -         -
   trrandom         -         -
          i                     0                     0
          p                    -0                    -0


Total analysis time (seconds) = 0.007

Total elapsed time (seconds) = 0.010 

Total DRAM available = 7961.031 MB.
DRAM currently available = 5676.316 MB.
Total ngspice program size =   22.395 MB.
Resident set size =   10.383 MB.
Shared ngspice pages =    7.973 MB.
Text (code) pages =    5.070 MB.
Stack = 0 bytes.
Library pages =    2.652 MB.

